* Parts Express Complete Speaker Library
* Total speakers: 440
* Generated from PDF spec sheets
*

* --------------------------------------------------------------------
* Category: coaxial (6 speakers)
* --------------------------------------------------------------------

* SPICE Model: 297-024
* MANUFACTURER: Unknown
* PART_NUMBER: 297-024
* PRODUCT_NAME: Morel Integra 424 Hybrid Series 4" Point Source Coaxial Full-Range
* MODEL_NAME: 297-024
* TYPE: coaxial
* DIAMETER: 0.0
* IMPEDANCE: 8.0
* POWER_RMS: 0.0
* POWER_MAX: 0.0
* SENSITIVITY: 0.0
* FS: 1100.0
* QTS: 1.53
* QES: 2.73
* QMS: 3.5
* VAS: 2.0
* RE: 3.5
* LE: 0.0
* BL: 0.0
* XMAX: 0.0
* MMS: 5.0
* CMS: 0.35
* SD: 6.15
* FREQ_MIN: 0.0
* FREQ_MAX: 0.0
* CONE_MATERIAL: 
* SURROUND_MATERIAL: 
* PRICE: 218.0
*
.SUBCKT 297_024 PLUS MINUS
* Voice coil electrical impedance (Re + jωLe)
Re PLUS 1 3.5
Le 1 2 0.0mH
*
* Motional impedance (mechanical system reflected to electrical)
* Using Thiele-Small parameters
Rms 2 3 2.730000
Lms 3 4 0.000185H
Cms 4 MINUS 0.000113F
*
* Resonance frequency should be: 1100.0 Hz
* Calculated Fres = 1/(2π√(Lms*Cms)) Hz
.ENDS 297_024

* SPICE Model: 297-026
* MANUFACTURER: Unknown
* PART_NUMBER: 297-026
* PRODUCT_NAME: Morel Integra 524 Hybrid Series 5" Point Source Coaxial Full-Range
* MODEL_NAME: 297-026
* TYPE: coaxial
* DIAMETER: 0.0
* IMPEDANCE: 8.0
* POWER_RMS: 0.0
* POWER_MAX: 0.0
* SENSITIVITY: 0.0
* FS: 1083.0
* QTS: 1.22
* QES: 2.69
* QMS: 2.26
* VAS: 12.93
* RE: 3.59
* LE: 0.0
* BL: 0.0
* XMAX: 0.0
* MMS: 6.59
* CMS: 0.98
* SD: 6.15
* FREQ_MIN: 0.0
* FREQ_MAX: 0.0
* CONE_MATERIAL: 
* SURROUND_MATERIAL: 
* PRICE: 263.0
*
.SUBCKT 297_026 PLUS MINUS
* Voice coil electrical impedance (Re + jωLe)
Re PLUS 1 3.59
Le 1 2 0.0mH
*
* Motional impedance (mechanical system reflected to electrical)
* Using Thiele-Small parameters
Rms 2 3 4.273053
Lms 3 4 0.000196H
Cms 4 MINUS 0.000110F
*
* Resonance frequency should be: 1083.0 Hz
* Calculated Fres = 1/(2π√(Lms*Cms)) Hz
.ENDS 297_026

* SPICE Model: 297-028
* MANUFACTURER: Unknown
* PART_NUMBER: 297-028
* PRODUCT_NAME: Morel Integra 624 Hybrid Series 6" Point Source Coaxial Full-Range
* MODEL_NAME: 297-028
* TYPE: coaxial
* DIAMETER: 0.0
* IMPEDANCE: 8.0
* POWER_RMS: 0.0
* POWER_MAX: 0.0
* SENSITIVITY: 0.0
* FS: 1124.0
* QTS: 1.82
* QES: 2.72
* QMS: 5.57
* VAS: 15.35
* RE: 3.73
* LE: 0.0
* BL: 0.0
* XMAX: 0.0
* MMS: 9.62
* CMS: 0.77
* SD: 6.15
* FREQ_MIN: 0.0
* FREQ_MAX: 0.0
* CONE_MATERIAL: 
* SURROUND_MATERIAL: 
* PRICE: 284.0
*
.SUBCKT 297_028 PLUS MINUS
* Voice coil electrical impedance (Re + jωLe)
Re PLUS 1 3.73
Le 1 2 0.0mH
*
* Motional impedance (mechanical system reflected to electrical)
* Using Thiele-Small parameters
Rms 2 3 1.821472
Lms 3 4 0.000194H
Cms 4 MINUS 0.000103F
*
* Resonance frequency should be: 1124.0 Hz
* Calculated Fres = 1/(2π√(Lms*Cms)) Hz
.ENDS 297_028

* SPICE Model: 290-504
* MANUFACTURER: Eminence
* PART_NUMBER: 290-504
* PRODUCT_NAME: Eminence Beta-12CX 12" Coaxial Driver
* MODEL_NAME: 290-504
* TYPE: coaxial
* DIAMETER: 0.0
* IMPEDANCE: 8.0
* POWER_RMS: 0.0
* POWER_MAX: 0.0
* SENSITIVITY: 0.0
* FS: 47.0
* QTS: 0.48
* QES: 0.52
* QMS: 5.64
* VAS: 4.27
* RE: 5.42
* LE: 0.64
* BL: 10.79
* XMAX: 3.5
* MMS: 38.0
* CMS: 0.3
* SD: 1001.0
* FREQ_MIN: 0.0
* FREQ_MAX: 0.0
* CONE_MATERIAL: 
* SURROUND_MATERIAL: 
* PRICE: 29.98
*
.SUBCKT 290_504 PLUS MINUS
* Voice coil electrical impedance (Re + jωLe)
Re PLUS 1 5.42
Le 1 2 0.64mH
*
* Motional impedance (mechanical system reflected to electrical)
* Using Thiele-Small parameters
Rms 2 3 0.499716
Lms 3 4 0.035295H
Cms 4 MINUS 0.000325F
*
* Resonance frequency should be: 47.0 Hz
* Calculated Fres = 1/(2π√(Lms*Cms)) Hz
.ENDS 290_504

* SPICE Model: 290-502
* MANUFACTURER: Eminence
* PART_NUMBER: 290-502
* PRODUCT_NAME: Eminence Beta-10CX 10" Coaxial Driver
* MODEL_NAME: 290-502
* TYPE: coaxial
* DIAMETER: 0.0
* IMPEDANCE: 8.0
* POWER_RMS: 0.0
* POWER_MAX: 0.0
* SENSITIVITY: 0.0
* FS: 49.0
* QTS: 0.38
* QES: 0.41
* QMS: 6.16
* VAS: 2.16
* RE: 5.48
* LE: 0.67
* BL: 10.88
* XMAX: 5.0
* MMS: 29.0
* CMS: 0.37
* SD: 1001.0
* FREQ_MIN: 0.0
* FREQ_MAX: 0.0
* CONE_MATERIAL: 
* SURROUND_MATERIAL: 
* PRICE: 135.99
*
.SUBCKT 290_502 PLUS MINUS
* Voice coil electrical impedance (Re + jωLe)
Re PLUS 1 5.48
Le 1 2 0.67mH
*
* Motional impedance (mechanical system reflected to electrical)
* Using Thiele-Small parameters
Rms 2 3 0.364740
Lms 3 4 0.043413H
Cms 4 MINUS 0.000243F
*
* Resonance frequency should be: 49.0 Hz
* Calculated Fres = 1/(2π√(Lms*Cms)) Hz
.ENDS 290_502

* SPICE Model: 290-500
* MANUFACTURER: Eminence
* PART_NUMBER: 290-500
* PRODUCT_NAME: Eminence Beta-8CX 8" Coaxial Driver
* MODEL_NAME: 290-500
* TYPE: coaxial
* DIAMETER: 0.0
* IMPEDANCE: 8.0
* POWER_RMS: 0.0
* POWER_MAX: 0.0
* SENSITIVITY: 0.0
* FS: 62.0
* QTS: 0.29
* QES: 0.31
* QMS: 6.57
* VAS: 0.76
* RE: 5.37
* LE: 0.67
* BL: 11.21
* XMAX: 3.2
* MMS: 19.0
* CMS: 0.35
* SD: 1001.0
* FREQ_MIN: 0.0
* FREQ_MAX: 0.0
* CONE_MATERIAL: 
* SURROUND_MATERIAL: 
* PRICE: 127.99
*
.SUBCKT 290_500 PLUS MINUS
* Voice coil electrical impedance (Re + jωLe)
Re PLUS 1 5.37
Le 1 2 0.67mH
*
* Motional impedance (mechanical system reflected to electrical)
* Using Thiele-Small parameters
Rms 2 3 0.253379
Lms 3 4 0.044467H
Cms 4 MINUS 0.000148F
*
* Resonance frequency should be: 62.0 Hz
* Calculated Fres = 1/(2π√(Lms*Cms)) Hz
.ENDS 290_500

* --------------------------------------------------------------------
* Category: fullrange (13 speakers)
* --------------------------------------------------------------------

* SPICE Model: 264-918
* MANUFACTURER: Tang Band
* PART_NUMBER: 264-918
* PRODUCT_NAME: Tang Band W5-1611SAF 5" Full Range Speaker
* MODEL_NAME: 264-918
* TYPE: fullrange
* DIAMETER: 0.0
* IMPEDANCE: 8.0
* POWER_RMS: 28.0
* POWER_MAX: 56.0
* SENSITIVITY: 0.0
* FS: 60.0
* QTS: 0.44
* QES: 0.52
* QMS: 2.8
* VAS: 11.609888
* RE: 6.3
* LE: 0.0
* BL: 5.53
* XMAX: 3.0
* MMS: 5.99
* CMS: 1.31
* SD: 94.0
* FREQ_MIN: 0.0
* FREQ_MAX: 0.0
* CONE_MATERIAL: 
* SURROUND_MATERIAL: 
* PRICE: 114.98
*
.SUBCKT 264_918 PLUS MINUS
* Voice coil electrical impedance (Re + jωLe)
Re PLUS 1 6.3
Le 1 2 0.0mH
*
* Motional impedance (mechanical system reflected to electrical)
* Using Thiele-Small parameters
Rms 2 3 1.170000
Lms 3 4 0.032137H
Cms 4 MINUS 0.000219F
*
* Resonance frequency should be: 60.0 Hz
* Calculated Fres = 1/(2π√(Lms*Cms)) Hz
.ENDS 264_918

* SPICE Model: 264-911
* MANUFACTURER: Tang Band
* PART_NUMBER: 264-911
* PRODUCT_NAME: CLEARANCE Tang Band W3-881SJF 3" Full Range Speaker
* MODEL_NAME: 264-911
* TYPE: fullrange
* DIAMETER: 0.0
* IMPEDANCE: 8.0
* POWER_RMS: 15.0
* POWER_MAX: 30.0
* SENSITIVITY: 0.0
* FS: 100.0
* QTS: 0.39
* QES: 0.41
* QMS: 6.44
* VAS: 1.9821760000000002
* RE: 6.6
* LE: 0.0
* BL: 4.47
* XMAX: 0.5
* MMS: 2.0
* CMS: 1.32
* SD: 32.0
* FREQ_MIN: 0.0
* FREQ_MAX: 0.0
* CONE_MATERIAL: 
* SURROUND_MATERIAL: 
* PRICE: 34.98
*
.SUBCKT 264_911 PLUS MINUS
* Voice coil electrical impedance (Re + jωLe)
Re PLUS 1 6.6
Le 1 2 0.0mH
*
* Motional impedance (mechanical system reflected to electrical)
* Using Thiele-Small parameters
Rms 2 3 0.420186
Lms 3 4 0.025620H
Cms 4 MINUS 0.000099F
*
* Resonance frequency should be: 100.0 Hz
* Calculated Fres = 1/(2π√(Lms*Cms)) Hz
.ENDS 264_911

* SPICE Model: 264-916
* MANUFACTURER: Tang Band
* PART_NUMBER: 264-916
* PRODUCT_NAME: Tang Band W4-1337SDF 4" Titanium Full Range Speaker
* MODEL_NAME: 264-916
* TYPE: fullrange
* DIAMETER: 0.0
* IMPEDANCE: 8.0
* POWER_RMS: 25.0
* POWER_MAX: 50.0
* SENSITIVITY: 0.0
* FS: 70.0
* QTS: 0.34
* QES: 0.4
* QMS: 2.04
* VAS: 5.663360000000001
* RE: 6.3
* LE: 0.0
* BL: 5.32
* XMAX: 2.5
* MMS: 3.99
* CMS: 1.21
* SD: 57.0
* FREQ_MIN: 0.0
* FREQ_MAX: 0.0
* CONE_MATERIAL: 
* SURROUND_MATERIAL: 
* PRICE: 111.95
*
.SUBCKT 264_916 PLUS MINUS
* Voice coil electrical impedance (Re + jωLe)
Re PLUS 1 6.3
Le 1 2 0.0mH
*
* Motional impedance (mechanical system reflected to electrical)
* Using Thiele-Small parameters
Rms 2 3 1.235294
Lms 3 4 0.035810H
Cms 4 MINUS 0.000144F
*
* Resonance frequency should be: 70.0 Hz
* Calculated Fres = 1/(2π√(Lms*Cms)) Hz
.ENDS 264_916

* SPICE Model: 264-825
* MANUFACTURER: Tang Band
* PART_NUMBER: 264-825
* PRODUCT_NAME: Tang Band W1-2121S 1-3/4" Aluminum Full Range Neodymium Driver
* MODEL_NAME: 264-825
* TYPE: fullrange
* DIAMETER: 0.0
* IMPEDANCE: 4.0
* POWER_RMS: 6.0
* POWER_MAX: 12.0
* SENSITIVITY: 1.0
* FS: 120.0
* QTS: 0.35
* QES: 0.47
* QMS: 1.33
* VAS: 0.11
* RE: 3.5
* LE: 0.07
* BL: 3.14
* XMAX: 2.3
* MMS: 1.68
* CMS: 0.94941
* SD: 0.0009
* FREQ_MIN: 120.0
* FREQ_MAX: 15000.0
* CONE_MATERIAL: 
* SURROUND_MATERIAL: 
* PRICE: 48.99
*
.SUBCKT 264_825 PLUS MINUS
* Voice coil electrical impedance (Re + jωLe)
Re PLUS 1 3.5
Le 1 2 0.07mH
*
* Motional impedance (mechanical system reflected to electrical)
* Using Thiele-Small parameters
Rms 2 3 1.236842
Lms 3 4 0.009877H
Cms 4 MINUS 0.000178F
*
* Resonance frequency should be: 120.0 Hz
* Calculated Fres = 1/(2π√(Lms*Cms)) Hz
.ENDS 264_825

* SPICE Model: 264-958
* MANUFACTURER: Tang Band
* PART_NUMBER: 264-958
* PRODUCT_NAME: Tang Band W5-2143 5" Paper Cone Full Range Driver 8 Ohm
* MODEL_NAME: 264-958
* TYPE: fullrange
* DIAMETER: 0.0
* IMPEDANCE: 8.0
* POWER_RMS: 30.0
* POWER_MAX: 60.0
* SENSITIVITY: 0.0
* FS: 55.0
* QTS: 0.38
* QES: 0.43
* QMS: 3.21
* VAS: 18.972256
* RE: 6.3
* LE: 0.0
* BL: 5.43
* XMAX: 2.5
* MMS: 5.99
* CMS: 1.4
* SD: 97.83
* FREQ_MIN: 0.0
* FREQ_MAX: 0.0
* CONE_MATERIAL: 
* SURROUND_MATERIAL: 
* PRICE: 100.89
*
.SUBCKT 264_958 PLUS MINUS
* Voice coil electrical impedance (Re + jωLe)
Re PLUS 1 6.3
Le 1 2 0.0mH
*
* Motional impedance (mechanical system reflected to electrical)
* Using Thiele-Small parameters
Rms 2 3 0.843925
Lms 3 4 0.042396H
Cms 4 MINUS 0.000198F
*
* Resonance frequency should be: 55.0 Hz
* Calculated Fres = 1/(2π√(Lms*Cms)) Hz
.ENDS 264_958

* SPICE Model: 292-644
* MANUFACTURER: Unknown
* PART_NUMBER: 292-644
* PRODUCT_NAME: Visaton BG13P 5" Full Range Speaker 8 Ohm
* MODEL_NAME: 292-644
* TYPE: fullrange
* DIAMETER: 0.0
* IMPEDANCE: 8.0
* POWER_RMS: 20.0
* POWER_MAX: 40.0
* SENSITIVITY: 0.0
* FS: 168.0
* QTS: 1.042
* QES: 1.58
* QMS: 3.06
* VAS: 56.916768
* RE: 5.2
* LE: 0.0
* BL: 3.22
* XMAX: 0.0
* MMS: 3.0
* CMS: 0.29
* SD: 0.0
* FREQ_MIN: 0.0
* FREQ_MAX: 0.0
* CONE_MATERIAL: 
* SURROUND_MATERIAL: 
* PRICE: 18.85
*
.SUBCKT 292_644 PLUS MINUS
* Voice coil electrical impedance (Re + jωLe)
Re PLUS 1 5.2
Le 1 2 0.0mH
*
* Motional impedance (mechanical system reflected to electrical)
* Using Thiele-Small parameters
Rms 2 3 2.684967
Lms 3 4 0.003118H
Cms 4 MINUS 0.000288F
*
* Resonance frequency should be: 168.0 Hz
* Calculated Fres = 1/(2π√(Lms*Cms)) Hz
.ENDS 292_644

* SPICE Model: 264-960
* MANUFACTURER: Tang Band
* PART_NUMBER: 264-960
* PRODUCT_NAME: Tang Band W8-2145 8" Paper Cone Full Range Driver 8 Ohm
* MODEL_NAME: 264-960
* TYPE: fullrange
* DIAMETER: 0.0
* IMPEDANCE: 8.0
* POWER_RMS: 40.0
* POWER_MAX: 80.0
* SENSITIVITY: 1.0
* FS: 40.0
* QTS: 0.45
* QES: 0.61
* QMS: 1.65
* VAS: 67.67
* RE: 6.8
* LE: 0.011
* BL: 6.59
* XMAX: 3.0
* MMS: 14.97
* CMS: 0.98464
* SD: 0.022
* FREQ_MIN: 40.0
* FREQ_MAX: 20000.0
* CONE_MATERIAL: 
* SURROUND_MATERIAL: 
* PRICE: 184.99
*
.SUBCKT 264_960 PLUS MINUS
* Voice coil electrical impedance (Re + jωLe)
Re PLUS 1 6.8
Le 1 2 0.011mH
*
* Motional impedance (mechanical system reflected to electrical)
* Using Thiele-Small parameters
Rms 2 3 2.513939
Lms 3 4 0.044355H
Cms 4 MINUS 0.000357F
*
* Resonance frequency should be: 40.0 Hz
* Calculated Fres = 1/(2π√(Lms*Cms)) Hz
.ENDS 264_960

* SPICE Model: 264-839
* MANUFACTURER: Tang Band
* PART_NUMBER: 264-839
* PRODUCT_NAME: Tang Band W2-2136S 2" Aluminum Full Range Neodymium Driver
* MODEL_NAME: 264-839
* TYPE: fullrange
* DIAMETER: 0.0
* IMPEDANCE: 4.0
* POWER_RMS: 10.0
* POWER_MAX: 20.0
* SENSITIVITY: 1.0
* FS: 120.0
* QTS: 0.31
* QES: 0.39
* QMS: 1.59
* VAS: 0.26
* RE: 3.4
* LE: 0.03
* BL: 3.71
* XMAX: 2.0
* MMS: 1.996
* CMS: 0.8007799999999999
* SD: 0.0015
* FREQ_MIN: 120.0
* FREQ_MAX: 15000.0
* CONE_MATERIAL: 
* SURROUND_MATERIAL: 
* PRICE: 45.0
*
.SUBCKT 264_839 PLUS MINUS
* Voice coil electrical impedance (Re + jωLe)
Re PLUS 1 3.4
Le 1 2 0.03mH
*
* Motional impedance (mechanical system reflected to electrical)
* Using Thiele-Small parameters
Rms 2 3 0.833962
Lms 3 4 0.011563H
Cms 4 MINUS 0.000152F
*
* Resonance frequency should be: 120.0 Hz
* Calculated Fres = 1/(2π√(Lms*Cms)) Hz
.ENDS 264_839

* SPICE Model: 264-894
* MANUFACTURER: Tang Band
* PART_NUMBER: 264-894
* PRODUCT_NAME: Tang Band W8-1808 8" Neodymium Full Range Driver
* MODEL_NAME: 264-894
* TYPE: fullrange
* DIAMETER: 0.0
* IMPEDANCE: 8.0
* POWER_RMS: 30.0
* POWER_MAX: 60.0
* SENSITIVITY: 0.0
* FS: 45.0
* QTS: 0.44
* QES: 0.66
* QMS: 1.33
* VAS: 88.065248
* RE: 6.8
* LE: 0.0
* BL: 5.28
* XMAX: 5.0
* MMS: 9.43
* CMS: 1.28
* SD: 220.0
* FREQ_MIN: 0.0
* FREQ_MAX: 0.0
* CONE_MATERIAL: 
* SURROUND_MATERIAL: 
*
.SUBCKT 264_894 PLUS MINUS
* Voice coil electrical impedance (Re + jωLe)
Re PLUS 1 6.8
Le 1 2 0.0mH
*
* Motional impedance (mechanical system reflected to electrical)
* Using Thiele-Small parameters
Rms 2 3 3.374436
Lms 3 4 0.036440H
Cms 4 MINUS 0.000343F
*
* Resonance frequency should be: 45.0 Hz
* Calculated Fres = 1/(2π√(Lms*Cms)) Hz
.ENDS 264_894

* SPICE Model: 264-880
* MANUFACTURER: Dayton Audio
* PART_NUMBER: 264-880
* PRODUCT_NAME: Dayton Audio DW3-1053SC 3" Full Range Driver
* MODEL_NAME: 264-880
* TYPE: fullrange
* DIAMETER: 0.0
* IMPEDANCE: 8.0
* POWER_RMS: 0.0
* POWER_MAX: 0.0
* SENSITIVITY: 86.8
* FS: 102.0
* QTS: 0.56
* QES: 0.62
* QMS: 5.72
* VAS: 1.28
* RE: 5.8
* LE: 0.14
* BL: 3.8
* XMAX: 1.5
* MMS: 2.4
* CMS: 1.01
* SD: 29.8
* FREQ_MIN: 0.0
* FREQ_MAX: 0.0
* CONE_MATERIAL: 
* SURROUND_MATERIAL: 
* PRICE: 45.99
*
.SUBCKT 264_880 PLUS MINUS
* Voice coil electrical impedance (Re + jωLe)
Re PLUS 1 5.8
Le 1 2 0.14mH
*
* Motional impedance (mechanical system reflected to electrical)
* Using Thiele-Small parameters
Rms 2 3 0.628671
Lms 3 4 0.014597H
Cms 4 MINUS 0.000167F
*
* Resonance frequency should be: 102.0 Hz
* Calculated Fres = 1/(2π√(Lms*Cms)) Hz
.ENDS 264_880

* SPICE Model: 292-640
* MANUFACTURER: Unknown
* PART_NUMBER: 292-640
* PRODUCT_NAME: Visaton FRS 5X-8 2" Full Range Speaker 8 Ohm
* MODEL_NAME: 292-640
* TYPE: fullrange
* DIAMETER: 0.0
* IMPEDANCE: 8.0
* POWER_RMS: 5.0
* POWER_MAX: 8.0
* SENSITIVITY: 0.0
* FS: 190.0
* QTS: 0.7
* QES: 0.88
* QMS: 3.49
* VAS: 0.22993241600000003
* RE: 7.7
* LE: 0.0
* BL: 2.704
* XMAX: 0.0
* MMS: 0.0
* CMS: 1.0
* SD: 12.5
* FREQ_MIN: 0.0
* FREQ_MAX: 0.0
* CONE_MATERIAL: 
* SURROUND_MATERIAL: 
* PRICE: 13.71
*
.SUBCKT 292_640 PLUS MINUS
* Voice coil electrical impedance (Re + jωLe)
Re PLUS 1 7.7
Le 1 2 0.0mH
*
* Motional impedance (mechanical system reflected to electrical)
* Using Thiele-Small parameters
Rms 2 3 1.941547
Lms 3 4 0.007330H
Cms 4 MINUS 0.000096F
*
* Resonance frequency should be: 190.0 Hz
* Calculated Fres = 1/(2π√(Lms*Cms)) Hz
.ENDS 292_640

* SPICE Model: 264-893
* MANUFACTURER: Tang Band
* PART_NUMBER: 264-893
* PRODUCT_NAME: Tang Band W8-1772 8" Neodymium Full Range Driver
* MODEL_NAME: 264-893
* TYPE: fullrange
* DIAMETER: 0.0
* IMPEDANCE: 8.0
* POWER_RMS: 30.0
* POWER_MAX: 60.0
* SENSITIVITY: 0.0
* FS: 42.0
* QTS: 0.27
* QES: 0.36
* QMS: 1.02
* VAS: 94.578112
* RE: 6.8
* LE: 0.0
* BL: 7.12
* XMAX: 3.0
* MMS: 10.11
* CMS: 1.37
* SD: 9.0
* FREQ_MIN: 0.0
* FREQ_MAX: 0.0
* CONE_MATERIAL: 
* SURROUND_MATERIAL: 
* PRICE: 349.98
*
.SUBCKT 264_893 PLUS MINUS
* Voice coil electrical impedance (Re + jωLe)
Re PLUS 1 6.8
Le 1 2 0.0mH
*
* Motional impedance (mechanical system reflected to electrical)
* Using Thiele-Small parameters
Rms 2 3 2.400000
Lms 3 4 0.071578H
Cms 4 MINUS 0.000201F
*
* Resonance frequency should be: 42.0 Hz
* Calculated Fres = 1/(2π√(Lms*Cms)) Hz
.ENDS 264_893

* SPICE Model: 295-010
* MANUFACTURER: Dayton Audio
* PART_NUMBER: 295-010
* PRODUCT_NAME: Dayton Audio PA130-8 5" Full Range PA Driver
* MODEL_NAME: 295-010
* TYPE: fullrange
* DIAMETER: 0.0
* IMPEDANCE: 8.0
* POWER_RMS: 0.0
* POWER_MAX: 0.0
* SENSITIVITY: 88.2
* FS: 83.4
* QTS: 0.51
* QES: 0.6
* QMS: 3.21
* VAS: 3.95
* RE: 7.1
* LE: 0.71
* BL: 6.44
* XMAX: 2.0
* MMS: 6.8
* CMS: 0.54
* SD: 73.9
* FREQ_MIN: 0.0
* FREQ_MAX: 0.0
* CONE_MATERIAL: 
* SURROUND_MATERIAL: 
* PRICE: 21.49
*
.SUBCKT 295_010 PLUS MINUS
* Voice coil electrical impedance (Re + jωLe)
Re PLUS 1 7.1
Le 1 2 0.71mH
*
* Motional impedance (mechanical system reflected to electrical)
* Using Thiele-Small parameters
Rms 2 3 1.327103
Lms 3 4 0.022582H
Cms 4 MINUS 0.000161F
*
* Resonance frequency should be: 83.4 Hz
* Calculated Fres = 1/(2π√(Lms*Cms)) Hz
.ENDS 295_010

* --------------------------------------------------------------------
* Category: guitar (1 speakers)
* --------------------------------------------------------------------

* SPICE Model: 290-406
* MANUFACTURER: Eminence
* PART_NUMBER: 290-406
* PRODUCT_NAME: Eminence Beta-10A 10" Guitar/PA Driver 8 Ohm
* MODEL_NAME: 290-406
* TYPE: guitar
* DIAMETER: 0.0
* IMPEDANCE: 8.0
* POWER_RMS: 0.0
* POWER_MAX: 0.0
* SENSITIVITY: 0.0
* FS: 53.0
* QTS: 0.49
* QES: 0.52
* QMS: 8.14
* VAS: 2.12
* RE: 5.75
* LE: 0.67
* BL: 9.6
* XMAX: 3.0
* MMS: 25.0
* CMS: 0.36
* SD: 344.9
* FREQ_MIN: 0.0
* FREQ_MAX: 0.0
* CONE_MATERIAL: 
* SURROUND_MATERIAL: 
* PRICE: 111.99
*
.SUBCKT 290_406 PLUS MINUS
* Voice coil electrical impedance (Re + jωLe)
Re PLUS 1 5.75
Le 1 2 0.67mH
*
* Motional impedance (mechanical system reflected to electrical)
* Using Thiele-Small parameters
Rms 2 3 0.367322
Lms 3 4 0.033205H
Cms 4 MINUS 0.000272F
*
* Resonance frequency should be: 53.0 Hz
* Calculated Fres = 1/(2π√(Lms*Cms)) Hz
.ENDS 290_406

* --------------------------------------------------------------------
* Category: midranges (36 speakers)
* --------------------------------------------------------------------

* SPICE Model: 297-435
* MANUFACTURER: HiVi
* PART_NUMBER: 297-435
* PRODUCT_NAME: HiVi F5 5" Bass/Midrange
* MODEL_NAME: 297-435
* TYPE: midranges
* DIAMETER: 0.0
* IMPEDANCE: 8.0
* POWER_RMS: 35.0
* POWER_MAX: 70.0
* SENSITIVITY: 0.0
* FS: 52.0
* QTS: 0.33
* QES: 0.36
* QMS: 4.31
* VAS: 9.061376000000001
* RE: 6.5
* LE: 0.0
* BL: 0.0
* XMAX: 2.7
* MMS: 11.5
* CMS: 0.83
* SD: 79.0
* FREQ_MIN: 0.0
* FREQ_MAX: 0.0
* CONE_MATERIAL: 
* SURROUND_MATERIAL: 
* PRICE: 34.98
*
.SUBCKT 297_435 PLUS MINUS
* Voice coil electrical impedance (Re + jωLe)
Re PLUS 1 6.5
Le 1 2 0.0mH
*
* Motional impedance (mechanical system reflected to electrical)
* Using Thiele-Small parameters
Rms 2 3 0.542923
Lms 3 4 0.055262H
Cms 4 MINUS 0.000170F
*
* Resonance frequency should be: 52.0 Hz
* Calculated Fres = 1/(2π√(Lms*Cms)) Hz
.ENDS 297_435

* SPICE Model: 297-106
* MANUFACTURER: Unknown
* PART_NUMBER: 297-106
* PRODUCT_NAME: Morel TSCM 634 Titanium Supreme Series 6" Midrange 4 Ohm
* MODEL_NAME: 297-106
* TYPE: midranges
* DIAMETER: 0.0
* IMPEDANCE: 8.0
* POWER_RMS: 0.0
* POWER_MAX: 0.0
* SENSITIVITY: 0.0
* FS: 49.0
* QTS: 0.53
* QES: 0.56
* QMS: 4.25
* VAS: 13.3
* RE: 3.3
* LE: 0.0
* BL: 0.0
* XMAX: 0.0
* MMS: 15.3
* CMS: 0.86
* SD: 119.0
* FREQ_MIN: 0.0
* FREQ_MAX: 0.0
* CONE_MATERIAL: 
* SURROUND_MATERIAL: 
* PRICE: 620.0
*
.SUBCKT 297_106 PLUS MINUS
* Voice coil electrical impedance (Re + jωLe)
Re PLUS 1 3.3
Le 1 2 0.0mH
*
* Motional impedance (mechanical system reflected to electrical)
* Using Thiele-Small parameters
Rms 2 3 0.434824
Lms 3 4 0.019140H
Cms 4 MINUS 0.000551F
*
* Resonance frequency should be: 49.0 Hz
* Calculated Fres = 1/(2π√(Lms*Cms)) Hz
.ENDS 297_106

* SPICE Model: 295-415
* MANUFACTURER: Dayton Audio
* PART_NUMBER: 295-415
* PRODUCT_NAME: Dayton Audio TCP115-4 4" Treated Paper Midbass Woofer 4 Ohm
* MODEL_NAME: 295-415
* TYPE: midranges
* DIAMETER: 0.0
* IMPEDANCE: 4.0
* POWER_RMS: 40.0
* POWER_MAX: 80.0
* SENSITIVITY: 0.0
* FS: 53.8
* QTS: 0.35
* QES: 0.4
* QMS: 3.14
* VAS: 3.1148480000000003
* RE: 3.2
* LE: 0.0
* BL: 5.2
* XMAX: 4.0
* MMS: 9.9
* CMS: 0.88
* SD: 50.3
* FREQ_MIN: 0.0
* FREQ_MAX: 0.0
* CONE_MATERIAL: 
* SURROUND_MATERIAL: 
*
.SUBCKT 295_415 PLUS MINUS
* Voice coil electrical impedance (Re + jωLe)
Re PLUS 1 3.2
Le 1 2 0.0mH
*
* Motional impedance (mechanical system reflected to electrical)
* Using Thiele-Small parameters
Rms 2 3 0.407643
Lms 3 4 0.023666H
Cms 4 MINUS 0.000370F
*
* Resonance frequency should be: 53.8 Hz
* Calculated Fres = 1/(2π√(Lms*Cms)) Hz
.ENDS 295_415

* SPICE Model: 295-416
* MANUFACTURER: Dayton Audio
* PART_NUMBER: 295-416
* PRODUCT_NAME: Dayton Audio TCP115-8 4" Treated Paper Cone Midbass Woofer 8 Ohm
* MODEL_NAME: 295-416
* TYPE: midranges
* DIAMETER: 0.0
* IMPEDANCE: 8.0
* POWER_RMS: 0.0
* POWER_MAX: 0.0
* SENSITIVITY: 81.9
* FS: 59.2
* QTS: 0.43
* QES: 0.54
* QMS: 2.3
* VAS: 2.52
* RE: 7.8
* LE: 1.9
* BL: 7.4
* XMAX: 4.0
* MMS: 10.16
* CMS: 0.71
* SD: 50.0
* FREQ_MIN: 0.0
* FREQ_MAX: 0.0
* CONE_MATERIAL: 
* SURROUND_MATERIAL: 
*
.SUBCKT 295_416 PLUS MINUS
* Voice coil electrical impedance (Re + jωLe)
Re PLUS 1 7.8
Le 1 2 1.9mH
*
* Motional impedance (mechanical system reflected to electrical)
* Using Thiele-Small parameters
Rms 2 3 1.831304
Lms 3 4 0.038833H
Cms 4 MINUS 0.000186F
*
* Resonance frequency should be: 59.2 Hz
* Calculated Fres = 1/(2π√(Lms*Cms)) Hz
.ENDS 295_416

* SPICE Model: 297-441
* MANUFACTURER: HiVi
* PART_NUMBER: 297-441
* PRODUCT_NAME: HiVi M6N 6" Aluminum/Magnesium Midbass
* MODEL_NAME: 297-441
* TYPE: midranges
* DIAMETER: 0.0
* IMPEDANCE: 8.0
* POWER_RMS: 45.0
* POWER_MAX: 90.0
* SENSITIVITY: 0.0
* FS: 46.0
* QTS: 0.39
* QES: 0.42
* QMS: 4.69
* VAS: 21.803936
* RE: 6.5
* LE: 0.0
* BL: 7.8
* XMAX: 4.3
* MMS: 13.6
* CMS: 0.871
* SD: 133.0
* FREQ_MIN: 0.0
* FREQ_MAX: 0.0
* CONE_MATERIAL: 
* SURROUND_MATERIAL: 
* PRICE: 38.98
*
.SUBCKT 297_441 PLUS MINUS
* Voice coil electrical impedance (Re + jωLe)
Re PLUS 1 6.5
Le 1 2 0.0mH
*
* Motional impedance (mechanical system reflected to electrical)
* Using Thiele-Small parameters
Rms 2 3 0.582090
Lms 3 4 0.053546H
Cms 4 MINUS 0.000224F
*
* Resonance frequency should be: 46.0 Hz
* Calculated Fres = 1/(2π√(Lms*Cms)) Hz
.ENDS 297_441

* SPICE Model: 295-636
* MANUFACTURER: Dayton Audio
* PART_NUMBER: 295-636
* PRODUCT_NAME: Dayton Audio MB820-8 8" Professional High Power Midbass Driver 8 Ohm
* MODEL_NAME: 295-636
* TYPE: midranges
* DIAMETER: 0.0
* IMPEDANCE: 8.0
* POWER_RMS: 0.0
* POWER_MAX: 0.0
* SENSITIVITY: 94.0
* FS: 69.0
* QTS: 0.46
* QES: 0.52
* QMS: 3.83
* VAS: 15.77
* RE: 5.26
* LE: 1.04
* BL: 9.6
* XMAX: 4.0
* MMS: 20.9
* CMS: 0.252
* SD: 211.24
* FREQ_MIN: 0.0
* FREQ_MAX: 0.0
* CONE_MATERIAL: 
* SURROUND_MATERIAL: 
* PRICE: 49.98
*
.SUBCKT 295_636 PLUS MINUS
* Voice coil electrical impedance (Re + jωLe)
Re PLUS 1 5.26
Le 1 2 1.04mH
*
* Motional impedance (mechanical system reflected to electrical)
* Using Thiele-Small parameters
Rms 2 3 0.714151
Lms 3 4 0.023332H
Cms 4 MINUS 0.000228F
*
* Resonance frequency should be: 69.0 Hz
* Calculated Fres = 1/(2π√(Lms*Cms)) Hz
.ENDS 295_636

* SPICE Model: 264-872
* MANUFACTURER: Tang Band
* PART_NUMBER: 264-872
* PRODUCT_NAME: Tang Band W4-1720 4" Underhung Midbass Driver
* MODEL_NAME: 264-872
* TYPE: midranges
* DIAMETER: 0.0
* IMPEDANCE: 4.0
* POWER_RMS: 30.0
* POWER_MAX: 60.0
* SENSITIVITY: 0.0
* FS: 60.0
* QTS: 0.42
* QES: 0.51
* QMS: 2.33
* VAS: 5.946528
* RE: 3.8
* LE: 0.0
* BL: 3.82
* XMAX: 5.0
* MMS: 5.0
* CMS: 0.13
* SD: 57.0
* FREQ_MIN: 0.0
* FREQ_MAX: 0.0
* CONE_MATERIAL: 
* SURROUND_MATERIAL: 
* PRICE: 109.99
*
.SUBCKT 264_872 PLUS MINUS
* Voice coil electrical impedance (Re + jωLe)
Re PLUS 1 3.8
Le 1 2 0.0mH
*
* Motional impedance (mechanical system reflected to electrical)
* Using Thiele-Small parameters
Rms 2 3 0.831760
Lms 3 4 0.019764H
Cms 4 MINUS 0.000356F
*
* Resonance frequency should be: 60.0 Hz
* Calculated Fres = 1/(2π√(Lms*Cms)) Hz
.ENDS 264_872

* SPICE Model: 297-002
* MANUFACTURER: Unknown
* PART_NUMBER: 297-002
* PRODUCT_NAME: Morel MSW 424D Shallow Classic Series 4" DPC Cone Woofer/Midrange 4 Ohms
* MODEL_NAME: 297-002
* TYPE: midranges
* DIAMETER: 0.0
* IMPEDANCE: 8.0
* POWER_RMS: 0.0
* POWER_MAX: 0.0
* SENSITIVITY: 0.0
* FS: 60.0
* QTS: 0.32
* QES: 0.38
* QMS: 2.05
* VAS: 4.75
* RE: 3.1
* LE: 0.0
* BL: 0.0
* XMAX: 0.0
* MMS: 6.5
* CMS: 1.056
* SD: 57.0
* FREQ_MIN: 0.0
* FREQ_MAX: 0.0
* CONE_MATERIAL: 
* SURROUND_MATERIAL: 
* PRICE: 118.0
*
.SUBCKT 297_002 PLUS MINUS
* Voice coil electrical impedance (Re + jωLe)
Re PLUS 1 3.1
Le 1 2 0.0mH
*
* Motional impedance (mechanical system reflected to electrical)
* Using Thiele-Small parameters
Rms 2 3 0.574634
Lms 3 4 0.021639H
Cms 4 MINUS 0.000325F
*
* Resonance frequency should be: 60.0 Hz
* Calculated Fres = 1/(2π√(Lms*Cms)) Hz
.ENDS 297_002

* SPICE Model: 297-444
* MANUFACTURER: HiVi
* PART_NUMBER: 297-444
* PRODUCT_NAME: HiVi D6.8B 6" Poly Bass/Midrange Shielded
* MODEL_NAME: 297-444
* TYPE: midranges
* DIAMETER: 0.0
* IMPEDANCE: 8.0
* POWER_RMS: 60.0
* POWER_MAX: 120.0
* SENSITIVITY: 0.0
* FS: 43.0
* QTS: 0.45
* QES: 0.49
* QMS: 5.21
* VAS: 13.592064
* RE: 6.5
* LE: 0.0
* BL: 8.7
* XMAX: 5.3
* MMS: 21.17
* CMS: 0.647
* SD: 121.2
* FREQ_MIN: 0.0
* FREQ_MAX: 0.0
* CONE_MATERIAL: 
* SURROUND_MATERIAL: 
* PRICE: 116.98
*
.SUBCKT 297_444 PLUS MINUS
* Voice coil electrical impedance (Re + jωLe)
Re PLUS 1 6.5
Le 1 2 0.0mH
*
* Motional impedance (mechanical system reflected to electrical)
* Using Thiele-Small parameters
Rms 2 3 0.611324
Lms 3 4 0.049099H
Cms 4 MINUS 0.000279F
*
* Resonance frequency should be: 43.0 Hz
* Calculated Fres = 1/(2π√(Lms*Cms)) Hz
.ENDS 297_444

* SPICE Model: 295-359
* MANUFACTURER: Dayton Audio
* PART_NUMBER: 295-359
* PRODUCT_NAME: Dayton Audio RS100P-8 4" Reference Paper Midwoofer 8 Ohm
* MODEL_NAME: 295-359
* TYPE: midranges
* DIAMETER: 0.0
* IMPEDANCE: 8.0
* POWER_RMS: 0.0
* POWER_MAX: 0.0
* SENSITIVITY: 86.2
* FS: 95.6
* QTS: 0.54
* QES: 0.71
* QMS: 2.18
* VAS: 1.82
* RE: 6.6
* LE: 0.51
* BL: 3.95
* XMAX: 3.7
* MMS: 2.8
* CMS: 0.98
* SD: 37.4
* FREQ_MIN: 0.0
* FREQ_MAX: 0.0
* CONE_MATERIAL: 
* SURROUND_MATERIAL: 
* PRICE: 38.98
*
.SUBCKT 295_359 PLUS MINUS
* Voice coil electrical impedance (Re + jωLe)
Re PLUS 1 6.6
Le 1 2 0.51mH
*
* Motional impedance (mechanical system reflected to electrical)
* Using Thiele-Small parameters
Rms 2 3 2.149541
Lms 3 4 0.015476H
Cms 4 MINUS 0.000179F
*
* Resonance frequency should be: 95.6 Hz
* Calculated Fres = 1/(2π√(Lms*Cms)) Hz
.ENDS 295_359

* SPICE Model: 297-436
* MANUFACTURER: HiVi
* PART_NUMBER: 297-436
* PRODUCT_NAME: HiVi M5N 5" Aluminum / Magnesium Midbass
* MODEL_NAME: 297-436
* TYPE: midranges
* DIAMETER: 0.0
* IMPEDANCE: 8.0
* POWER_RMS: 35.0
* POWER_MAX: 70.0
* SENSITIVITY: 0.0
* FS: 50.0
* QTS: 0.35
* QES: 0.37
* QMS: 6.51
* VAS: 11.326720000000002
* RE: 6.5
* LE: 0.0
* BL: 0.0
* XMAX: 2.7
* MMS: 10.7
* CMS: 1.1
* SD: 87.0
* FREQ_MIN: 0.0
* FREQ_MAX: 0.0
* CONE_MATERIAL: 
* SURROUND_MATERIAL: 
* PRICE: 26.98
*
.SUBCKT 297_436 PLUS MINUS
* Voice coil electrical impedance (Re + jωLe)
Re PLUS 1 6.5
Le 1 2 0.0mH
*
* Motional impedance (mechanical system reflected to electrical)
* Using Thiele-Small parameters
Rms 2 3 0.369432
Lms 3 4 0.055919H
Cms 4 MINUS 0.000181F
*
* Resonance frequency should be: 50.0 Hz
* Calculated Fres = 1/(2π√(Lms*Cms)) Hz
.ENDS 297_436

* SPICE Model: 297-445
* MANUFACTURER: HiVi
* PART_NUMBER: 297-445
* PRODUCT_NAME: HiVi F8 8" Bass/Midrange
* MODEL_NAME: 297-445
* TYPE: midranges
* DIAMETER: 0.0
* IMPEDANCE: 8.0
* POWER_RMS: 60.0
* POWER_MAX: 120.0
* SENSITIVITY: 0.0
* FS: 37.0
* QTS: 0.4
* QES: 0.44
* QMS: 4.71
* VAS: 38.794016000000006
* RE: 6.5
* LE: 0.0
* BL: 0.0
* XMAX: 5.0
* MMS: 30.5
* CMS: 0.59
* SD: 214.0
* FREQ_MIN: 0.0
* FREQ_MAX: 0.0
* CONE_MATERIAL: 
* SURROUND_MATERIAL: 
* PRICE: 74.98
*
.SUBCKT 297_445 PLUS MINUS
* Voice coil electrical impedance (Re + jωLe)
Re PLUS 1 6.5
Le 1 2 0.0mH
*
* Motional impedance (mechanical system reflected to electrical)
* Using Thiele-Small parameters
Rms 2 3 0.607219
Lms 3 4 0.063545H
Cms 4 MINUS 0.000291F
*
* Resonance frequency should be: 37.0 Hz
* Calculated Fres = 1/(2π√(Lms*Cms)) Hz
.ENDS 297_445

* SPICE Model: 297-440
* MANUFACTURER: HiVi
* PART_NUMBER: 297-440
* PRODUCT_NAME: HiVi F6 6-1/2" Bass/Midrange
* MODEL_NAME: 297-440
* TYPE: midranges
* DIAMETER: 0.0
* IMPEDANCE: 8.0
* POWER_RMS: 0.0
* POWER_MAX: 90.0
* SENSITIVITY: 0.0
* FS: 45.0
* QTS: 0.35
* QES: 0.38
* QMS: 3.91
* VAS: 16.4
* RE: 6.5
* LE: 0.0
* BL: 9.0
* XMAX: 4.3
* MMS: 18.3
* CMS: 658.0
* SD: 0.0
* FREQ_MIN: 0.0
* FREQ_MAX: 0.0
* CONE_MATERIAL: 
* SURROUND_MATERIAL: 
* PRICE: 52.98
*
.SUBCKT 297_440 PLUS MINUS
* Voice coil electrical impedance (Re + jωLe)
Re PLUS 1 6.5
Le 1 2 0.0mH
*
* Motional impedance (mechanical system reflected to electrical)
* Using Thiele-Small parameters
Rms 2 3 0.631714
Lms 3 4 0.060497H
Cms 4 MINUS 0.000207F
*
* Resonance frequency should be: 45.0 Hz
* Calculated Fres = 1/(2π√(Lms*Cms)) Hz
.ENDS 297_440

* SPICE Model: 295-637
* MANUFACTURER: Dayton Audio
* PART_NUMBER: 295-637
* PRODUCT_NAME: Dayton Audio MB1025-8 10" Professional High Power Midbass Driver 8 Ohm
* MODEL_NAME: 295-637
* TYPE: midranges
* DIAMETER: 0.0
* IMPEDANCE: 8.0
* POWER_RMS: 0.0
* POWER_MAX: 0.0
* SENSITIVITY: 95.0
* FS: 45.0
* QTS: 0.34
* QES: 0.36
* QMS: 6.47
* VAS: 50.7
* RE: 5.3
* LE: 1.2
* BL: 13.18
* XMAX: 3.0
* MMS: 41.1
* CMS: 0.301
* SD: 346.36
* FREQ_MIN: 0.0
* FREQ_MAX: 0.0
* CONE_MATERIAL: 
* SURROUND_MATERIAL: 
* PRICE: 69.98
*
.SUBCKT 295_637 PLUS MINUS
* Voice coil electrical impedance (Re + jωLe)
Re PLUS 1 5.3
Le 1 2 1.2mH
*
* Motional impedance (mechanical system reflected to electrical)
* Using Thiele-Small parameters
Rms 2 3 0.294900
Lms 3 4 0.052069H
Cms 4 MINUS 0.000240F
*
* Resonance frequency should be: 45.0 Hz
* Calculated Fres = 1/(2π√(Lms*Cms)) Hz
.ENDS 295_637

* SPICE Model: 290-212
* MANUFACTURER: Dayton Audio
* PART_NUMBER: 290-212
* PRODUCT_NAME: Dayton Audio ND105-4 4" Aluminum Cone Midbass Neo Driver 4 Ohm
* MODEL_NAME: 290-212
* TYPE: midranges
* DIAMETER: 0.0
* IMPEDANCE: 4.0
* POWER_RMS: 0.0
* POWER_MAX: 0.0
* SENSITIVITY: 86.8